*Heading
** Job name: VBI Model name: VBI
** Generated by: Abaqus/CAE 6.14-1
*Preprint, echo=NO, model=NO, history=NO, contact=NO
**
** PARTS
**
*Part, name=Bridge
*End Part
**  
**
** ASSEMBLY
**
*Assembly, name=Assembly
**  
*Instance, name=Bridge-1, part=Bridge
*Node
      1,           0.,           0.
      2,  0.100000001,           0.
      3,  0.200000003,           0.
      4,  0.300000012,           0.
      5,  0.400000006,           0.
      6,          0.5,           0.
      7,  0.600000024,           0.
      8,  0.699999988,           0.
      9,  0.800000012,           0.
     10,  0.899999976,           0.
     11,           1.,           0.
     12,   1.10000002,           0.
     13,   1.20000005,           0.
     14,   1.29999995,           0.
     15,   1.39999998,           0.
     16,          1.5,           0.
     17,   1.60000002,           0.
     18,   1.70000005,           0.
     19,   1.79999995,           0.
     20,   1.89999998,           0.
** ... 231 like lines cut
*Element, type=B21
  1,   1,   2
  2,   2,   3
  3,   3,   4
  4,   4,   5
  5,   5,   6
  6,   6,   7
  7,   7,   8
  8,   8,   9
  9,   9,  10
 10,  10,  11
 11,  11,  12
 12,  12,  13
 13,  13,  14
 14,  14,  15
 15,  15,  16
 16,  16,  17
 17,  17,  18
 18,  18,  19
 19,  19,  20
 20,  20,  21
** ... 230 like lines cut
*Nset, nset=_PickedSet6, internal, generate
   1,  251,    1
*Elset, elset=_PickedSet6, internal, generate
   1,  250,    1
** Section: Bridge  Profile: Solid Bridge
*Beam Section, elset=_PickedSet6, material=BridgeMaterial, temperature=GRADIENTS, section=RECT
3.5, 0.25
0.,0.,-1.
*End Instance
**  
*Node
      1,           0.,           1.,           0.
*Node
      2,           0.,           0.,           0.
*Nset, nset="Bridge Profile", instance=Bridge-1, generate
   1,  251,    1
*Elset, elset="Bridge Profile", instance=Bridge-1, generate
   1,  250,    1
*Nset, nset=Hinge, instance=Bridge-1
 1,
*Nset, nset=Roller, instance=Bridge-1
 251,
*Nset, nset=Tire
 2,
*Nset, nset=Vehicle
 1,
*Elset, elset=_Bridge_SPOS, internal, instance=Bridge-1, generate
   1,  250,    1
*Surface, type=ELEMENT, name=Bridge
_Bridge_SPOS, SPOS
*Surface, type=NODE, name=Tire_CNS_, internal
Tire, 1.
** Constraint: VT
*Coupling, constraint name=VT, ref node=Vehicle, surface=Tire_CNS_
*Kinematic
*Spring, elset=Vehical+Tire-spring

5e+06
*Dashpot, elset=Vehical+Tire-dashpot

2000.
*Element, type=SpringA, elset=Vehical+Tire-spring
1, 1, 2
*Element, type=DashpotA, elset=Vehical+Tire-dashpot
2, 1, 2
*End Assembly
** 
** MATERIALS
** 
*Material, name=BridgeMaterial
*Damping, alpha=0.5, beta=0.001
*Density
4800.,
*Elastic
 2.75e+10, 0.2
** 
** INTERACTION PROPERTIES
** 
*Surface Interaction, name="Front Propegation"
1.,
*Friction, rough
*Surface Behavior, penalty
** 
** BOUNDARY CONDITIONS
** 
** Name: Left Type: Displacement/Rotation
*Boundary
Hinge, 1, 1
Hinge, 2, 2
** Name: Right Type: Displacement/Rotation
*Boundary
Roller, 1, 1
Roller, 2, 2
** 
** INTERACTIONS
** 
** Interaction: BridgeTire
*Contact Pair, interaction="Front Propegation"
Tire_CNS_, Bridge
** ----------------------------------------------------------------
** 
** STEP: Before
** 
*Step, name=Before, nlgeom=NO, inc=100000
*Static
0.001, 1., 1e-50, 1.
** 
** LOADS
** 
** Name: Concentrated Force   Type: Concentrated force
*Cload
Vehicle, 2, -3.
** 
** OUTPUT REQUESTS
** 
*Restart, write, frequency=0
** 
** FIELD OUTPUT: Global Response
** 
*Output, field
*Node Output
U, VT
*Element Output, directions=YES
S, 
*Output, history, frequency=0
*End Step
** ----------------------------------------------------------------
** 
** STEP: MoveForward
** 
*Step, name=MoveForward, nlgeom=NO, inc=100000
*Dynamic,application=MODERATE DISSIPATION,initial=NO
0.001,2.5,1e-15
** 
** BOUNDARY CONDITIONS
** 
** Name: Move Forward Type: Displacement/Rotation
*Boundary
Vehicle, 1, 1, 25.
Vehicle, 3, 3
Vehicle, 4, 4
Vehicle, 5, 5
Vehicle, 6, 6
** 
** OUTPUT REQUESTS
** 
*Restart, write, frequency=0
** 
** FIELD OUTPUT: Global Response
** 
*Output, field, frequency=1
*Node Output
U, VT
*Element Output, directions=YES
S, 
*Output, history, frequency=0
*End Step
